powerflow/Codes/PF_Formulation/resultados_csv/15/300bus/ramos.csv
caso,script,branch_id,f_bus,t_bus,pf_pu,qf_pu,pt_pu,qt_pu,loss_p_pu,loss_q_pu
300bus.pwf,15,1,206,207,-0.08797950564119011,-0.08983059904816622,0.08913831809231981,0.09130689436261848,0.0011588124511296982,0.0014762953144522584
300bus.pwf,15,2,9021,9023,0.009139657857114269,0.0034783305307208236,-0.009031288573991969,-0.0033850416930145057,0.00010836928312230043,9.32888377063179e-5
300bus.pwf,15,3,1,5,4.062679563275223,1.0393906155968424,-4.045894293660142,-0.9386789979063351,0.016785269615080978,0.1007116176905073
300bus.pwf,15,4,37,38,-0.3084464068053331,0.013237290461557437,0.30922521147590454,-0.01651845477186977,0.0007788046705714535,-0.0032811643103123345
300bus.pwf,15,5,70,528,0.28369704181013283,-0.21406753186449323,-0.28099999798561465,0.2049999994419277,0.002697043824518186,-0.009067532422565527
300bus.pwf,15,6,25,26,0.7874564415759523,-0.034368663387997545,-0.76609476632452,0.04181238799958459,0.02136167525143229,0.007443724611587044
300bus.pwf,15,7,41,42,-5.59885318099299,0.3076656893452494,5.59885318099299,0.5998346921745039,0.0,0.9075003815197533
300bus.pwf,15,8,231,232,5.528899895173566,0.9892531286850017,-5.522822731541637,-2.271340037827068,0.006077163631929672,-1.2820869091420664
300bus.pwf,15,9,201,204,-0.11926459804285729,0.06388221818368572,0.12169393753802017,-0.060296983283567085,0.0024293394951628855,0.003585234900118639
300bus.pwf,15,10,119,1190,1.004015945033344,0.31506673576702465,-1.0029999999999952,-0.2916999999999976,0.0010159450333486753,0.02336673576702708
300bus.pwf,15,11,115,122,1.8321527224106167,0.7311241571281853,-1.8155913848312413,-0.642881454221964,0.01656133757937539,0.08824270290622138
300bus.pwf,15,12,9006,9007,0.09134606396303045,0.028025262287572347,-0.09079518364487969,-0.025580495478016826,0.0005508803181507593,0.002444766809555521
300bus.pwf,15,13,145,146,-2.051261462935494,-0.4036201124734241,2.0875994796776465,0.5627227574473018,0.03633801674215231,0.15910264497387772
300bus.pwf,15,14,228,231,0.0545902191290493,-0.11510109884802368,-0.05455133516133324,0.11647250647862918,3.8883967716063506e-5,0.0013714076306055034
300bus.pwf,15,15,129,133,0.9898014127034691,-0.15642083710292243,-0.987672247448478,0.145675025664724,0.0021291652549910722,-0.010745811438198416
300bus.pwf,15,16,189,208,0.08024260947504473,0.02482611278207629,-0.08000824983624126,-0.024151441094613244,0.00023435963880347188,0.0006746716874630465
300bus.pwf,15,17,57,58,-0.5950630920652343,0.8084595347279976,0.6405814007376974,-0.7658373003222781,0.04551830867246309,0.04262223440571944
300bus.pwf,15,18,200,210,-0.23446757950449007,-0.031112644859045274,0.2394081853607645,0.02584137679845952,0.004940605856274427,-0.005271268060585754
300bus.pwf,15,19,15,89,0.45186257891185627,-0.19439422526162475,-0.42878589237603576,0.21659622092618258,0.023076686535820512,0.022201995664557828
300bus.pwf,15,20,197,198,-0.9519715848978739,-0.24296771077497764,0.9618106356430441,0.29296087350215755,0.00983905074517022,0.04999316272717991
300bus.pwf,15,21,14,15,2.4503919762361313,-1.3415356780850196,-2.337649441699765,1.5845159418219943,0.11274253453636618,0.24298026373697468
300bus.pwf,15,22,9004,9044,-0.04299709869565571,-0.01569125529480691,0.043089494425110675,0.01576103432430547,9.239572945496377e-5,6.97790294985623e-5
300bus.pwf,15,23,173,176,-0.5062848540154254,0.09079212407448303,0.5567080409427526,-0.021805466866989504,0.05042318692732717,0.06898665720749353
300bus.pwf,15,24,224,226,-0.3707914675671333,-2.5499762356019837,0.37964761968541016,1.7160972353802275,0.008856152118276839,-0.8338790002217562
300bus.pwf,15,25,135,136,-2.151464653195673,-0.2944845727061183,2.1926578022001166,0.1686886448205187,0.04119314900444371,-0.12579592788559957
300bus.pwf,15,26,13,20,0.8803024222041537,-0.22851270748929772,-0.8753239590194609,0.2407993774933815,0.00497846318469275,0.012286670004083788
300bus.pwf,15,27,116,120,-2.9914769603436326,0.38562546260388847,3.010415237650257,0.6067087767636095,0.01893827730662423,0.9923342393674979
300bus.pwf,15,28,104,322,0.024121043338248355,-0.05349566194248536,-0.023999999994616078,0.03899999999640238,0.00012104334363227665,-0.014495661946082983
300bus.pwf,15,29,37,90,-0.5791794858791757,0.10298572288598684,0.5958511699670239,-0.07388401797393118,0.01667168408784825,0.02910170491205566
300bus.pwf,15,30,127,128,-0.5373539724251104,-0.2516919192304314,0.5393941498888335,0.1791493623284345,0.002040177463723092,-0.07254255690199687
300bus.pwf,15,31,26,320,0.024766769896110027,-0.13783598733511188,-0.023999999999940055,0.12599999999993067,0.000766769896169972,-0.011835987335181208
300bus.pwf,15,32,167,169,-1.5258060737519663,-0.5370063116652197,1.5308577238875427,0.5597093711436223,0.005051650135576402,0.022703059478402565
300bus.pwf,15,33,203,211,0.28424101885307246,0.00032445011414028446,-0.28343666018428576,-0.0035924884471093543,0.0008043586687866977,-0.00326803833296907
300bus.pwf,15,34,123,124,-1.5208517871611962,0.26021782364935747,1.6231235970971394,-0.05839601699913283,0.1022718099359432,0.20182180665022464
300bus.pwf,15,35,24,319,1.1678057321208886,-0.28084618639815634,-1.1579999999606703,0.23999999999576754,0.009805732160218295,-0.040846186402388795
300bus.pwf,15,36,99,109,0.31774966613549666,0.006440791415528814,-0.31306596516928265,-0.011835138233673138,0.0046837009662140106,-0.005394346818144324
300bus.pwf,15,37,77,78,-2.6167496545776046,-0.5431966454595498,2.624154220653162,0.5808333509909902,0.007404566075557284,0.037636705531440384
300bus.pwf,15,38,20,27,0.24261947946507015,0.0028188463909212536,-0.23836476515548513,-0.08668926886177078,0.004254714309585017,-0.08387042247084953
300bus.pwf,15,39,198,210,0.9362910926047908,0.27698362225039463,-0.9177386256675552,-0.21721620373028996,0.018552466937235668,0.05976741852010467
300bus.pwf,15,40,97,102,0.3048083438463532,0.0655546034160907,-0.3011865343271212,-0.06891874527775038,0.0036218095192319666,-0.003364141861659675
300bus.pwf,15,41,37,40,-0.18199732821785147,-0.02952697503472919,0.18275595526450722,0.024831459552272575,0.0007586270466557465,-0.004695515482456614
300bus.pwf,15,42,220,238,-2.835179800414013,0.3644426075761765,2.8483468949958444,-0.7358561746533604,0.013167094581831407,-0.37141356707718387
300bus.pwf,15,43,8,14,4.282257233468846,-0.07270898163259853,-4.05039190986094,0.7415356837151037,0.2318653236079058,0.6688267020825052
300bus.pwf,15,44,158,159,-2.3473651619276055,0.8937177100309305,2.369410410756161,-0.8351287388339584,0.022045248828555408,0.05858897119697204
300bus.pwf,15,45,217,220,-0.1900041496842893,-0.11271731665224444,0.1903636294841678,-0.7373906265356028,0.00035947979987849266,-0.8501079431878473
300bus.pwf,15,46,122,123,0.25202137998602475,-0.17362341700076153,-0.24302453411487096,0.17574157592944759,0.008996845871153791,0.0021181589286860536
300bus.pwf,15,47,228,234,-0.02575947576462391,-0.30053100288751305,0.02578339848585655,-0.5746772926695314,2.3922721232638722e-5,-0.8752082955570444
300bus.pwf,15,48,7,12,2.56618050576577,-1.0999895403514828,-2.558172914591621,1.1040380762194204,0.008007591174148843,0.00404853586793763
300bus.pwf,15,49,130,151,1.4040170193396913,0.7071269809211648,-1.3998808234319524,-0.6932307056778674,0.004136195907738838,0.013896275243297396
300bus.pwf,15,50,11,13,1.4776421368102919,-0.07283526555404896,-1.4603024221100909,0.12851270751635502,0.017339714700201014,0.05567744196230606
300bus.pwf,15,51,198,203,0.7088300777959249,0.1383434441384608,-0.7042410108165498,-0.140324449725896,0.0045890669793751115,-0.0019810055874351917
300bus.pwf,15,52,245,246,0.19704100013764053,0.03844053833919937,-0.1963699704111596,-0.03531191566541815,0.0006710297264809206,0.003128622673781223
300bus.pwf,15,53,165,166,-5.523849149685368,0.49638727284963224,5.529999999902505,-0.1181099844957326,0.006150850217136572,0.3782772883538996
300bus.pwf,15,54,235,238,-2.5849828265926575,-0.39119773564566873,2.5862942812320497,-0.42054114306365176,0.0013114546393921955,-0.8117388787093205
300bus.pwf,15,55,119,121,6.669216709208993,5.02558560106943,-6.669216709208993,-1.3019038463447483,0.0,3.723681754724682
300bus.pwf,15,56,63,526,1.5198543733205332,0.06144288771986292,-1.452999999659844,0.349000000271666,0.06685437366068925,0.41044288799152895
300bus.pwf,15,57,85,86,-1.2279363598827973,0.1676842723063839,1.2409689334526763,-0.18583230326128838,0.01303257356987908,-0.01814803095490447
300bus.pwf,15,58,125,126,-3.7016715816506087,0.2540598208079074,3.71092121221478,0.04963638271572118,0.009249630564171163,0.3036962035236286
300bus.pwf,15,59,172,173,0.3135154886514439,0.026095000180448483,-0.3070026171662417,-0.04242067489511876,0.006512871485202187,-0.01632567471467028
300bus.pwf,15,60,173,175,-0.18002922598476961,0.06567153449955393,0.18307000256204525,-0.09424539261047599,0.003040776577275639,-0.028573858110922057
300bus.pwf,15,61,126,129,0.2692530839262437,-0.5132454932846671,-0.26593332436053063,0.3713176462104004,0.003319759565713065,-0.14192784707426664
300bus.pwf,15,62,157,159,-6.20832874448408,1.7660580697778165,6.248368344450536,-1.3324473848889689,0.04003959996645623,0.4336106848888477
300bus.pwf,15,63,175,179,0.1583605787883679,-0.0549814372118123,-0.15625153972782774,0.012396016237283855,0.002109039060540163,-0.04258542097452844
300bus.pwf,15,64,154,183,-0.44790786885543005,0.1141634500822206,0.46679970820380107,-0.0846113738957157,0.01889183934837102,0.029552076186504905
300bus.pwf,15,65,21,24,-2.2707935792153338,-0.7675488202842466,2.2945171938283413,0.6970727487654174,0.023723614613007538,-0.07047607151882929
300bus.pwf,15,66,217,219,-1.1698802828981676,-1.8653988561171857,1.1721923710737483,1.925761777431508,0.0023120881755807066,0.06036292131432219
300bus.pwf,15,67,91,94,-0.15394195520067233,0.3562185281596011,0.16867987108800475,-0.3509573494322211,0.01473791588733242,0.005261178727379967
300bus.pwf,15,68,191,192,8.321103290958334,3.4842492961881946,-8.097106414618478,0.09970072524949225,0.22399687633985543,3.583950021437687
300bus.pwf,15,69,217,218,0.1690666371086296,0.3096520378290677,-0.1690666371086296,-0.3041951583043172,0.0,0.005456879524750491
300bus.pwf,15,70,12,21,4.888732553075041,0.8626771797245183,-4.838180634982223,-0.5966265718934849,0.05055191809281823,0.2660506078310334
300bus.pwf,15,71,178,179,0.19873033140517804,-0.21807707276792773,-0.1941318781245729,0.20870389910551343,0.004598453280605153,-0.009373173662414302
300bus.pwf,15,72,51,52,-0.25598506273300164,0.26640459507643116,0.2616519413957484,-0.2966132442537351,0.005666878662746733,-0.030208649177303926
300bus.pwf,15,73,158,160,-0.9458869331296873,-0.23302736740219868,0.9529393666747417,0.04205267418282102,0.00705243354505436,-0.19097469321937766
300bus.pwf,15,74,33,38,1.425254889191775,0.08163137299617684,-1.4201200586630358,-0.06983231821518299,0.005134830528739087,0.011799054780993856
300bus.pwf,15,75,199,200,-0.016692710122354633,-0.010853719712397642,0.016719903168259893,0.002719725148885261,2.7193045905260504e-5,-0.008133994563512381
300bus.pwf,15,76,98,100,-0.049335993677556374,-0.03301101062157408,0.04941531223803786,0.026200963360779924,7.931856048148944e-5,-0.006810047260794153
300bus.pwf,15,77,126,157,-3.5939958103521956,1.2195911846502794,3.6767402126047157,-0.6772532594457975,0.08274440225252011,0.5423379252044819
300bus.pwf,15,78,53,54,-0.36329852736426366,-0.019931105944046026,0.36677909483156407,-0.0034300442298090678,0.0034805674673004106,-0.023361150173855094
300bus.pwf,15,79,72,531,0.14056406793224535,0.029252545675255058,-0.1399999996987526,-0.02500000000868787,0.0005640682334927538,0.004252545666567187
300bus.pwf,15,80,2,8,4.573452889462147,-0.07511245773922892,-4.455663091433913,0.5486352247663916,0.11778979802823386,0.47352276702716267
300bus.pwf,15,81,48,107,-0.4369766510927115,-0.08668437508996393,0.4420921611273722,0.09248535011546852,0.0051155100346607085,0.0058009750255045844
300bus.pwf,15,82,199,210,-0.33330728220126177,-0.10914628106039377,0.33871070663178654,0.11826500471600383,0.0054034244305247725,0.009118723655610061
300bus.pwf,15,83,15,90,0.5109199030454176,-0.11206890042147846,-0.48537297987922956,0.16011560582458798,0.025546923166188007,0.04804670540310951
300bus.pwf,15,84,45,74,2.466219183144695,-0.23323326629447289,-2.4107948580459926,0.16445045998559132,0.05542432509870254,-0.06878280630888156
300bus.pwf,15,85,35,76,1.1331291702688344,0.25743151641122136,-1.1245790052661175,-0.2393563709713838,0.00855016500271688,0.01807514543983757
300bus.pwf,15,86,117,118,-8.947777964712607,3.144677613247294,8.958641527431084,-2.963138415601717,0.010863562718476771,0.18153919764557713
300bus.pwf,15,87,39,42,4.999999256518571,1.7922500842403246,-4.983320962576412,-2.0298502121443414,0.016678293942158362,-0.23760012790401674
300bus.pwf,15,88,204,205,-0.025078854239422792,-0.15546186146388769,0.02629042133816905,0.15725287369681779,0.001211567098746258,0.0017910122329301004
300bus.pwf,15,89,60,62,-3.3980666551655943,0.48050848171035176,3.5079508346577017,-0.17106399043612952,0.10988417949210749,0.30944449127422224
300bus.pwf,15,90,137,181,-1.858743202782741,-1.4315805554209255,1.8612477879863938,1.4255513763752852,0.0025045852036527094,-0.006029179045640376
300bus.pwf,15,91,140,141,-0.5258090224944426,-0.0975024517339025,0.5288772513237553,-0.01578344130777308,0.0030682288293126803,-0.11328589304167558
300bus.pwf,15,92,81,194,0.1392915486159582,-0.9218341350459724,-0.13782545706330454,0.3723369961571301,0.0014660915526536478,-0.5494971388888423
300bus.pwf,15,93,143,145,0.46419327704801616,0.3935013419223854,-0.46126492315515244,-0.48853174088324747,0.002928353892863722,-0.09503039896086207
300bus.pwf,15,94,55,57,-1.004337170254165,0.2588376746311208,1.07691360397554,-0.15349817197120458,0.07257643372137501,0.1053395026599162
300bus.pwf,15,95,78,84,-3.3799999980797915,-0.81234391836065,3.3799999980797915,1.2580346678176042,0.0,0.4456907494569542
300bus.pwf,15,96,172,174,-0.3087340896554324,-0.11174435109506053,0.3143087835705582,0.10014563552624989,0.005574693915125772,-0.011598715568810647
300bus.pwf,15,97,126,127,1.691535216698016,-1.0674584117362529,-1.6666077457929247,1.0071424833783547,0.024927470905091287,-0.06031592835789823
300bus.pwf,15,98,57,63,0.18814968753349834,0.04135442732875604,-0.18185080380449506,-0.08992236848021484,0.0062988837290032795,-0.0485679411514588
300bus.pwf,15,99,190,240,-0.3309432372475536,1.202918797914343,0.3309432372475536,-1.164460749651255,0.0,0.038458048263088074
300bus.pwf,15,100,123,125,0.9838763394978223,-0.4499592767721203,-0.921139950599221,0.5066192067440383,0.06273638889860123,0.05665992997191799
300bus.pwf,15,101,126,158,-3.1925420334046537,1.0723723981331987,3.2932528840555846,-0.660690201090764,0.10071085065093088,0.4116821970424347
300bus.pwf,15,102,143,149,-0.48620341292990304,-0.3304805560157459,0.4897269545212137,0.2044148480944931,0.0035235415913106305,-0.1260657079212528
300bus.pwf,15,103,196,197,-0.74786216299691,-0.24148423504488778,0.7570704512275068,0.26396053985209056,0.009208288230596828,0.02247630480720278
300bus.pwf,15,104,163,164,-2.2837505419585207,-0.44816449602893005,2.314090637443499,-2.877384134523112,0.030340095484978402,-3.325548630552042
300bus.pwf,15,105,134,135,-0.45857511638202153,-0.05667365243026225,0.4594646529603321,-0.1215154267274987,0.0008895365783105902,-0.17818907915776094
300bus.pwf,15,106,242,247,0.9933782591116697,0.2131424302765202,-0.9816537132867557,-0.13745629963890466,0.011724545824914001,0.07568613063761553
300bus.pwf,15,107,102,104,0.5188997994321133,-0.2765843623574378,-0.5042461192454427,0.2716943236137348,0.01465368018667057,-0.0048900387437029735
300bus.pwf,15,108,99,108,-0.17618317000155945,-0.23107876342587996,0.1763550012965229,0.22946477327648562,0.00017183129496345373,-0.0016139901493943398
300bus.pwf,15,109,140,182,1.6357248517348986,-0.5184439779052163,-1.6322722730587877,0.4127239462262744,0.003452578676110818,-0.10572003167894195
300bus.pwf,15,110,173,174,-0.6416833028116914,-0.03016107575528057,0.6759577798288262,0.12025942408160814,0.03427447701713482,0.09009834832632757
300bus.pwf,15,111,198,202,0.1147759148095395,-0.01182029352990003,-0.11048559730942661,0.020711071963868934,0.0042903175001128835,0.008890778433968904
300bus.pwf,15,112,47,113,0.2506418618791894,-0.05549562147557606,-0.2476162328140809,0.05179688912539203,0.003025629065108504,-0.003698732350184031
300bus.pwf,15,113,134,184,-0.6195660826314409,-0.6723595229443956,0.6221440369216491,0.42765589276325333,0.0025779542902082397,-0.24470363018114227
300bus.pwf,15,114,77,80,-0.00797892369572852,-0.06248145305160937,0.0080081704944678,0.0258697358975908,2.924679873927971e-5,-0.036611717154018564
300bus.pwf,15,115,74,562,0.5128816506867471,-0.12878205682338073,-0.5049999466829769,-0.17399999522702647,0.007881704003770196,-0.3027820520504072
300bus.pwf,15,116,220,221,0.4654270636806273,0.005089405798633328,-0.46514701233660377,-0.5038679871499362,0.00028005134402353526,-0.4987785813513029
300bus.pwf,15,117,187,188,4.936299049070511,1.1885286332165401,-4.920290540938696,-1.1207491243398715,0.01600850813181509,0.06777950887666861
300bus.pwf,15,118,112,114,-0.04309717069719822,-0.035353862774815475,0.04314983410909447,0.029824360511493758,5.266341189624768e-5,-0.005529502263321717
300bus.pwf,15,119,37,49,2.751028526559043,-0.5567930656176101,-2.6148540270909204,1.1574243130877753,0.13617449946812243,0.6006312474701652
300bus.pwf,15,120,118,1201,-0.7306584335267358,-0.2673393397890991,0.7306584335267358,0.7227325185875391,0.0,0.45539317879844
300bus.pwf,15,121,146,147,-1.6759059088042227,0.2481481281402684,1.6949835769646655,-0.19840779745721068,0.019077668160442762,0.04974033068305772
300bus.pwf,15,122,9003,9007,-0.0699680882526623,-0.016463783064806593,0.07029515657732953,0.01790956573438366,0.00032706832466722346,0.001445782669577067
300bus.pwf,15,123,224,225,-2.389555852976731,1.193311851718726,2.467521146779876,-1.147485143958083,0.07796529380314476,0.045826707760642904
300bus.pwf,15,124,122,125,0.5677273843156923,-0.20330222665246525,-0.5251882815408122,0.31916707104612263,0.042539102774880044,0.11586484439365738
300bus.pwf,15,125,195,219,0.1617559813511762,-1.1199289648391608,-0.15954158486571401,0.5982847906031802,0.002214396485462178,-0.5216441742359806
300bus.pwf,15,126,133,169,1.0011863825812681,0.8373873660069053,-0.9975104710064654,-0.8339260217007949,0.003675911574802737,0.0034613443061104476
300bus.pwf,15,127,148,179,0.4120404028664317,0.07215309790341694,-0.38961658214515543,-0.08641583472732815,0.022423820721276244,-0.014262736823911215
300bus.pwf,15,128,242,245,0.6858052590035114,0.2094775723877418,-0.6815290824704946,-0.16509920373411682,0.004276176533016818,0.04437836865362499
300bus.pwf,15,129,90,92,-0.7704771106526567,-0.08623132062780467,0.7894010007764571,0.16369225599612644,0.01892389012380047,0.07746093536832177
300bus.pwf,15,130,190,229,-0.2108117721673091,0.10140866990273167,0.2108117721673091,-0.09833074700508249,0.0,0.003077922897649188
300bus.pwf,15,131,218,220,-0.3289928060420443,-0.23064030286015563,0.3293891076609886,-0.20023418008213428,0.000396301618944328,-0.4308744829422899
300bus.pwf,15,132,214,215,2.502165369410956,0.135588240819744,-2.491303517766685,-0.03693289415693449,0.010861851644270892,0.0986553466628095
300bus.pwf,15,133,38,41,-0.7523655983103766,-0.1182221647258162,0.7570638742361196,0.12006565313681766,0.004698275925743012,0.0018434884110014593
300bus.pwf,15,134,41,51,1.2242237740375193,-0.21982549295884757,-1.1767273586471565,0.3204900108311527,0.047496415390362756,0.10066451787230513
300bus.pwf,15,135,162,164,4.6187332754078305,0.16089791107169665,-4.566427956235601,0.3197448288103821,0.05230531917222958,0.48064273988207873
300bus.pwf,15,136,70,71,-0.8436970390933887,0.014067531709397008,0.8691278800083446,0.00804781098469598,0.025430840914955954,0.022115342694092988
300bus.pwf,15,137,9003,9044,0.04326738467007199,0.015914194883826,-0.04308948916340152,-0.015761037895703874,0.00017789550667046683,0.0001531569881221273
300bus.pwf,15,138,33,40,0.6857415761462677,-0.12772290582837026,-0.6828157593810538,0.12201837127459864,0.0029258167652139733,-0.005704534553771623
300bus.pwf,15,139,120,1201,0.7306582901794889,0.44955578536983154,-0.7306582901794889,-0.7227325292881539,0.0,-0.27317674391832236
300bus.pwf,15,140,105,110,0.45241597137632045,-0.040817575762140484,-0.4213119901935298,0.07360951771142529,0.031103981182790674,0.03279194194928481
300bus.pwf,15,141,162,165,-5.468733275507619,-0.40089791078164877,5.523849149552511,-0.49638727277028766,0.055115874044892266,-0.8972851835519364
300bus.pwf,15,142,42,46,5.490924664242682,-0.7792356747912319,-5.4311396528846565,0.38332837815910037,0.059785011358025386,-0.39590729663213153
300bus.pwf,15,143,37,41,-1.156146832513037,-0.0017034390844655745,1.1697827558803955,0.03094216065242239,0.013635923367358416,0.029238721567956816
300bus.pwf,15,144,103,105,0.41313522251332674,-0.013171151657981078,-0.41004059093450557,0.014937690037572587,0.003094631578821172,0.001766538379591509
300bus.pwf,15,145,127,168,-0.5348109817636961,-0.2515623151441676,0.5368340381967773,0.17885491984082436,0.002023056433081205,-0.07270739530334325
300bus.pwf,15,146,126,132,-0.004638212028108275,-0.4298025687872708,0.006456534762495254,0.1425342413331971,0.001818322734386979,-0.2872683274540737
300bus.pwf,15,147,94,97,0.19944939177098067,-0.20790881058419455,-0.17776104866632605,0.19847423797047462,0.021688343104654617,-0.009434572613719938
300bus.pwf,15,148,177,178,1.595526863695646,0.46002660811173196,-1.5347571752707918,-0.2756721431243208,0.060769688424854085,0.18435446498741115
300bus.pwf,15,149,34,42,-2.4118603125631024,-0.2737073348810709,2.417717898551648,0.2782067608328346,0.005857585988545466,0.004499425951763669
300bus.pwf,15,150,71,73,-0.6030342189403175,0.27708040646397236,0.6192195748506775,-0.2744027334261244,0.016185355910359966,0.0026776730378479385
300bus.pwf,15,151,249,250,-0.22515106937625015,-0.1553823651677543,0.2299999993931385,0.16999999997516038,0.004848930016888353,0.014617634807406077
300bus.pwf,15,152,19,87,2.877800447869058,-0.17616702316871147,-2.7629004965428026,0.7415586404303168,0.11489995132625541,0.5653916172616054
300bus.pwf,15,153,74,88,-0.7345943121613763,-0.6593108396560614,0.7385029320569059,0.6364147037652506,0.003908619895529597,-0.022896135890810854
300bus.pwf,15,154,178,180,-2.195857588409983,-0.7677596956600716,2.232814658610466,0.8660746172754763,0.03695707020048289,0.09831492161540467
300bus.pwf,15,155,140,146,-0.2635191157480909,-0.23966507614236462,0.26627643168271153,-0.24828138594648522,0.002757315934620641,-0.48794646208884984
300bus.pwf,15,156,2,6,1.0508460499910353,0.498944842877917,-1.0495760816068334,-0.48751512742009456,0.0012699683842019027,0.011429715457822454
300bus.pwf,15,157,126,169,0.540467726783544,-0.3820935720676738,-0.5333472639884798,0.2742166567057204,0.007120462795064286,-0.10787691536195343
300bus.pwf,15,158,109,114,0.10568654464109427,-0.04731189177871971,-0.10428814636491955,0.01837353988055253,0.0013983982761747171,-0.028938351898167177
300bus.pwf,15,159,35,77,-0.48605031633945434,-0.10949653919328298,0.4886659166836736,0.11421381528874533,0.00261560034421926,0.004717276095462353
300bus.pwf,15,160,73,76,0.26392167706286335,-0.005004881985995788,-0.26236241748991324,-0.018761605446498755,0.0015592595729501113,-0.023766487432494543
300bus.pwf,15,161,76,77,-0.6930585116883105,-0.1578275246860332,0.7017654253041034,0.1774444049577741,0.0087069136157929,0.01961688027174091
300bus.pwf,15,162,99,107,-0.24204143085238036,0.007570390258101564,0.2452313553448184,-0.01625590395159003,0.0031899244924380454,-0.008685513693488467
300bus.pwf,15,163,196,210,-0.23395990269552527,-0.0351723402119483,0.2357409892720639,0.030507904422914997,0.0017810865765386374,-0.0046644357890333055
300bus.pwf,15,164,62,64,2.1128254489639433,0.3989655469325609,-2.038003555779934,-0.10044545447836561,0.07482189318400945,0.2985200924541953
300bus.pwf,15,165,139,172,0.27457457587122597,-0.15024034698070976,-0.2697813989998828,0.08564935091592009,0.004793176871343174,-0.06459099606478967
300bus.pwf,15,166,192,225,0.09710648521513982,-0.8197006700850197,-0.0955548546443557,0.82668300765355,0.0015516305707841127,0.0069823375685302835
300bus.pwf,15,167,4,16,12.400436233258116,0.7163676401404857,-12.094068026918727,1.074632965395385,0.3063682063393891,1.7910006055358707
300bus.pwf,15,168,181,187,-6.449963708506078,-1.4158087294231185,6.465700950940416,1.6136643434316644,0.01573724243433805,0.1978556140085459
300bus.pwf,15,169,140,142,0.7497500430234804,-0.21954584000513994,-0.7415535400826038,-0.44443839072347774,0.008196502940876593,-0.6639842307286177
300bus.pwf,15,170,205,206,0.012217212453504187,-0.04219393870563734,-0.011613414370995532,0.04308564050960692,0.0006037980825086553,0.0008917018039695801
300bus.pwf,15,171,109,113,0.014559753719898077,0.023429985703320114,-0.014383734970139044,-0.05179689506228125,0.00017601874975903264,-0.028366909358961138
300bus.pwf,15,172,219,237,-0.5567732286907527,-3.301741240028087,0.5569048592254631,-2.465917138238246,0.00013163053471032526,-5.767658378266333
300bus.pwf,15,173,35,72,0.48726877874010727,0.00919434031162468,-0.4842607795125264,-0.0016880516911484816,0.003007999227580882,0.007506288620476198
300bus.pwf,15,174,140,147,-0.46506473095729467,-0.22458655783398362,0.4750164230358003,-0.29448531221040075,0.009951692078505603,-0.5190718700443844
300bus.pwf,15,175,3,19,1.7316195018690306,0.049169004516592174,-1.7067008734462024,0.0333379121804927,0.024918628422828215,0.08250691669708488
300bus.pwf,15,176,38,43,0.31326209587711656,0.024573782996468077,-0.31000660531245855,-0.054539512829203454,0.0032554905646580146,-0.029965729832735377
300bus.pwf,15,177,58,59,-0.7805813925094413,0.7558372994835787,0.7914532651447651,-0.7292704986096419,0.010871872635323854,0.026566800873936813
300bus.pwf,15,178,136,137,0.8903882157216373,-0.37861373511885094,-0.8812493891066345,-0.1465869188803966,0.00913882661500276,-0.5252006539992475
300bus.pwf,15,179,133,171,7.648912015784442,2.2912153320894286,-7.635999998552761,-1.6391584618895432,0.012912017231681006,0.6520568701998855
300bus.pwf,15,180,216,217,-0.18736710845447657,-0.8934867912213124,0.1908177962104951,0.9184641355864033,0.0034506877560185334,0.024977344365090914
300bus.pwf,15,181,118,121,0.513771740508808,0.2189247852744732,-0.512934164836955,-0.10794600875392998,0.0008375756718530525,0.11097877652054322
300bus.pwf,15,182,9002,9021,0.07238495513092352,0.025590273248617984,-0.0720645906575384,-0.02517111481472359,0.0003203644733851263,0.00041915843389439544
300bus.pwf,15,183,54,55,-0.3365732523888446,0.020956400215804527,0.34074001182906166,-0.05454577054175319,0.004166759440217049,-0.033589370325948664
300bus.pwf,15,184,86,323,-0.14854140880863542,0.18172652380374418,0.1489999998191054,-0.264999999905315,0.0004585910104699664,-0.08327347610157079
300bus.pwf,15,185,108,324,0.25179587807199,-0.023617722875364983,-0.24699999999999986,0.011999999999999872,0.0047958780719901395,-0.01161772287536511
300bus.pwf,15,186,43,53,0.3281647206415995,-0.0007809239649261834,-0.32670114271855744,-0.01006896038032895,0.001463577923042081,-0.010849884345255134
300bus.pwf,15,187,22,23,-0.9634780678370813,-0.01480355979973147,1.012285873181425,0.06673151174851,0.0488078053443437,0.05192795194877853
300bus.pwf,15,188,186,188,6.555266334125954,1.1271788589660403,-6.527868482040096,-0.9194731243683024,0.027397852085858432,0.2077057345977379
300bus.pwf,15,189,3,150,-3.29328429872732,1.2970958566316262,3.3062399726771847,-1.2064061389825844,0.012955673949864632,0.09068971764904177
300bus.pwf,15,190,86,87,-1.7503997353220964,0.39027974837336876,1.7917712380677155,-0.2428811984681977,0.04137150274561918,0.14739854990517107
300bus.pwf,15,191,69,79,-0.09445205011634863,-0.08962825546369396,0.09529092329106595,0.07060252028215425,0.0008388731747173139,-0.019025735181539716
300bus.pwf,15,192,9002,9012,-0.042997529309463114,0.0075582513270708454,0.04314455716842748,-0.006723267346077492,0.00014702785896436588,0.0008349839809933535
300bus.pwf,15,193,128,130,-0.8645698075982301,-0.16665262442673634,0.8705491643005717,0.0991031375246625,0.0059793567023416205,-0.06754948690207384
300bus.pwf,15,194,176,177,1.0628518212257974,0.2481317867604742,-1.0355268636938137,-0.20776826984408436,0.027324957531983607,0.04036351691638984
300bus.pwf,15,195,130,168,0.860144271225773,0.09883487246640789,-0.8543040866233156,-0.16593015406784173,0.005840184602457388,-0.06709528160143384
300bus.pwf,15,196,98,102,0.062335994103347406,0.0027170520528954044,-0.06220032851668851,-0.017184379609187502,0.00013566558665889517,-0.014467327556292098
300bus.pwf,15,197,232,233,1.0428227319304062,0.8413400378539142,-1.0399999999605078,-0.7608091551832812,0.002822731969898351,0.08053088267063302
300bus.pwf,15,198,73,79,-0.2613115185957936,-0.08605665509018864,0.262735589248576,0.07310530482147046,0.0014240706527823832,-0.012951350268718187
300bus.pwf,15,199,71,72,-0.26609363689167775,0.11136688858295088,0.26955148531394335,-0.16297079552193086,0.003457848422265597,-0.05160390693897998
300bus.pwf,15,200,43,44,-0.3417460530560833,-0.024827704551359395,0.3449208887741527,-0.000218538649360292,0.0031748357180694242,-0.025046243200719687
300bus.pwf,15,201,248,249,0.06501292693228715,-0.014913267764989385,-0.0648489297354619,0.015382365159896466,0.0001639971968252496,0.0004690973949070809
300bus.pwf,15,202,194,219,1.2740765909265404,-0.8113452268926057,-1.268598959123662,0.31380210197762215,0.005477631802878413,-0.49754312491498354
300bus.pwf,15,203,3,7,0.7778581901779685,0.44296459711267744,-0.7778581901779685,-0.4404787285968723,0.0,0.002485868515805123
300bus.pwf,15,204,152,153,-0.15423668811109187,0.05520295378442841,0.15474991858721648,-0.2067778988672636,0.0005132304761246154,-0.1515749450828352
300bus.pwf,15,205,138,188,-4.417668239041012,0.24768977205386647,4.424744076082682,0.10963999855049963,0.007075837041670141,0.3573297706043661
300bus.pwf,15,206,137,188,-5.184194607543879,-1.4277816040340197,5.197414946978774,1.4945822501520736,0.013220339434894868,0.06680064611805392
300bus.pwf,15,207,7,131,-2.8646992323340945,1.0134551190818306,2.8742883782883886,-0.9597755204683457,0.009589145954294054,0.053679598613484925
300bus.pwf,15,208,97,100,0.32866845001259143,0.076725703302943,-0.32622042490007735,-0.07795044865214103,0.002448025112514074,-0.001224745349198031
300bus.pwf,15,209,138,181,-3.849331760940461,0.28164271054459084,3.8547159206153836,-0.009742646961011084,0.005384159674922451,0.27190006358357977
300bus.pwf,15,210,92,105,1.3051659386710386,0.2199416173450987,-1.2782106219910545,-0.08691310659740797,0.026955316679984076,0.13302851074769073
300bus.pwf,15,211,92,103,0.6474332119575108,0.1367110023072275,-0.6398703185664198,-0.09771076116817151,0.007562893391090952,0.03900024113905598
300bus.pwf,15,212,104,108,0.3941250786668364,-0.21819865987806691,-0.3791508738733333,0.20059258382009654,0.014974204793503088,-0.017606076057970377
300bus.pwf,15,213,155,161,-0.7729529688374519,-0.39424091202407363,0.779727103383306,0.021068849493772412,0.006774134545854071,-0.3731720625303012
300bus.pwf,15,214,226,231,-0.37964762004387104,-1.7160972349049124,0.38114489486876285,1.7795816874803285,0.0014972748248918144,0.06348445257541613
300bus.pwf,15,215,130,167,1.4927962592173,0.4928897066401435,-1.4731939199293906,-0.4199936816998802,0.019602339287909443,0.07289602494026326
300bus.pwf,15,216,79,211,-0.08603740011349068,-0.055706844410426656,0.08690461007588454,0.00912144530221896,0.0008672099623938667,-0.04658539910820769
300bus.pwf,15,217,194,664,-1.1362510023808403,0.4390082406752834,1.1399999833602403,-0.7669999950177038,0.0037489809794000184,-0.3279917543424204
300bus.pwf,15,218,23,25,1.2653912007260566,0.12365095722529507,-1.2374564415753568,-0.08563133661190125,0.02793475915069976,0.03801962061339381
300bus.pwf,15,219,9001,9005,-0.26452612919291385,-0.3967796032838531,0.2647131514006894,0.3975931498877183,0.00018702220777555567,0.0008135466038652339
300bus.pwf,15,220,128,133,0.3251756535488178,-0.012496727984766955,-0.3248977376870806,-0.015092525832210123,0.00027791586173719907,-0.027589253816977077
300bus.pwf,15,221,206,208,-0.020407081863620998,0.02674496685906668,0.020679803199457444,-0.02626656818245387,0.00027272133583644553,0.0004783986766128123
300bus.pwf,15,222,133,168,-0.31720513319416205,-0.01476021275567764,0.31747004423800024,-0.012924755938212615,0.00026491104383818964,-0.027684968693890255
300bus.pwf,15,223,78,79,0.7558457822348713,0.2315105664308579,-0.7519890866925553,-0.2280009823241205,0.0038566955423160465,0.0035095841067374067
300bus.pwf,15,224,9002,9012,-0.042997529309463114,0.0075582513270708454,0.04314455716842748,-0.006723267346077492,0.00014702785896436588,0.0008349839809933535
300bus.pwf,15,225,41,49,1.3381415859481183,-0.3258943153275033,-1.2158478640746853,0.6649218670887789,0.12229372187343301,0.3390275517612756
300bus.pwf,15,226,9,11,0.46945992184402907,-0.27387061805921775,-0.467709019172596,0.26868824642047884,0.0017509026714330744,-0.005182371638738914
300bus.pwf,15,227,91,97,0.9691135188158665,0.2456167247314111,-0.9490244427809459,-0.2169467125899464,0.020089076034920605,0.028670012141464696
300bus.pwf,15,228,16,42,8.680733938107936,-1.479443338128537,-8.52417356369303,1.931048559930265,0.1565603744149069,0.4516052218017279
300bus.pwf,15,229,46,81,3.1277636278879313,-0.9134712444620656,-3.077630481827009,0.6275327466157381,0.05013314606092223,-0.2859384978463275
300bus.pwf,15,230,9003,9006,-0.08019247041868204,-0.0201050626362646,0.0810545918285158,0.023930406528144207,0.0008621214098337715,0.0038253438918796068
300bus.pwf,15,231,45,60,-3.315520399437105,0.6557345964621885,3.398066667300139,-0.4805083620223304,0.0825462678630342,0.17522623443985808
300bus.pwf,15,232,80,211,-0.2880081702072084,-0.0958697357091824,0.2899924376279584,0.04841114913188123,0.0019842674207499744,-0.047458586577301176
300bus.pwf,15,233,153,161,1.1362967069065053,3.8522473053137496e-5,-1.1297271033638834,-0.17106884949040857,0.006569603542621927,-0.17103032701735543
300bus.pwf,15,234,26,27,0.4613279964291707,0.0060235993353371375,-0.4516352348435901,-0.04331073113841144,0.009692761585580634,-0.0372871318030743
300bus.pwf,15,235,20,22,-0.15239867502566473,0.202519368840548,0.1534780678396086,-0.2151964402009483,0.001079392813943869,-0.012677071360400305
300bus.pwf,15,236,36,88,-1.1343474889546712,-0.22215654750241082,1.1397362850352681,0.2157212775368607,0.005388796080596947,-0.0064352699655501056
300bus.pwf,15,237,243,244,0.5723972140300058,0.30727134746320184,-0.5671427399634146,-0.2925836443636691,0.005254474066591186,0.014687703099532712
300bus.pwf,15,238,81,195,1.06010106416885,-0.6424019563137536,-1.0558747704018387,0.12529480497124598,0.004226293767011224,-0.5171071513425076
300bus.pwf,15,239,197,211,-0.23509866263915988,-0.16099286097899093,0.2363283848399785,0.15833907332852118,0.0012297222008186282,-0.002653787650469752
300bus.pwf,15,240,77,609,0.30349258898347536,0.005713490633228721,-0.2959999995216593,-0.006000000101938172,0.007492589461816079,-0.0002865094687094505
300bus.pwf,15,241,215,216,1.5844650943458352,0.1970245316499904,-1.572632891085677,-0.1565132080754344,0.011832203260158103,0.040511323574556
300bus.pwf,15,242,245,247,0.0598571604409676,0.0005801197592711273,-0.05972036170957511,0.00022509277356525838,0.00013679873139249565,0.0008052125328363857
300bus.pwf,15,243,118,119,-8.882760133315776,-3.488444982694528,8.882760133315776,6.5011600500901565,0.0,3.0127150673956287
300bus.pwf,15,244,234,237,0.1271069662873547,-0.6053714162039796,-0.1268938407093296,0.6150331090744459,0.00021312557802510845,0.009661692870466254
300bus.pwf,15,245,37,89,-0.5043459572689517,0.1409030383699015,0.5333795892735254,-0.10168665112772926,0.02903363200457365,0.039216387242172246
300bus.pwf,15,246,15,37,1.059531196721637,-0.13115235714766182,-0.9869626259982491,0.2876205954447615,0.07256857072338785,0.15646823829709966
300bus.pwf,15,247,77,552,-0.10982771551119495,-0.03893086701747715,0.11099999985199936,0.014000000027084892,0.0011722843408044081,-0.02493086699039226
300bus.pwf,15,248,119,120,1.7440039111236347,1.4661575041214583,-1.7440039111236347,-1.3046979531056806,0.0,0.1614595510157777
300bus.pwf,15,249,19,21,-1.1710995743736523,0.14282911670891477,1.1740773721255013,-0.149796145495157,0.0029777977518490317,-0.006967028786242224
300bus.pwf,15,250,190,231,5.2917550117617145,-2.8028820179390355,-5.281540714147957,-4.020134758413311,0.01021429761375714,-6.823016776352347
300bus.pwf,15,251,136,152,-3.635046019260469,0.027925090781311335,3.704236688101844,-0.5966357779158733,0.06919066884137459,-0.568710687134562
300bus.pwf,15,252,193,205,0.038774134572669844,0.0654320169526817,-0.03850764087563294,-0.0650589257768311,0.00026649369703690695,0.0003730911758506039
300bus.pwf,15,253,193,208,0.010722258228218685,-0.03028382240074736,-0.010671542738446928,0.0304180071341005,5.071548977175766e-5,0.00013418473335313763
300bus.pwf,15,254,214,242,-0.020790452841104996,-0.12993642293329433,0.02081648191628645,0.12815458409863456,2.602907518145514e-5,-0.0017818388346597658
300bus.pwf,15,255,33,34,-2.4118602250992707,0.09601628035383847,2.4118602250992707,0.273707968288166,0.0,0.3697242486420045
300bus.pwf,15,256,120,1200,-0.9999999999999942,0.3679181339897468,0.9999999999999942,-0.341700000000003,0.0,0.02621813398974382
300bus.pwf,15,257,89,91,-0.546593061687217,-0.11490935555445214,0.5608285328717562,0.1360323552344639,0.014235471184539161,0.021122999680011745
300bus.pwf,15,258,129,130,-0.7238681015173978,-0.21489679621918367,0.7280912042287859,0.1340980996091201,0.004223102711388149,-0.08079869661006356
300bus.pwf,15,259,105,107,0.7398352220898021,0.11279300951460898,-0.7333232577147486,-0.07622947465078718,0.006511964375053525,0.0365635348638218
300bus.pwf,15,260,175,176,-0.5784939730815462,-0.030451876702444453,0.6104401378328923,0.10929711491178098,0.03194616475134615,0.07884523820933653
300bus.pwf,15,261,62,144,-2.8809217239021487,0.34612923808776147,2.8892761872236017,-0.3007644194010118,0.008354463321452954,0.045364818686749686
300bus.pwf,15,262,246,247,-0.01455518286531983,-0.0249014101286546,0.014579121211309956,0.025016189138346856,2.3938345990126564e-5,0.0001147790096922563
300bus.pwf,15,263,69,211,-0.1962833335309036,-0.1282851860023629,0.19915066540305565,0.11443751621394513,0.0028673318721520458,-0.013847669788417782
300bus.pwf,15,264,137,140,5.175100163155396,-0.3728906450139525,-5.1382579816687395,0.34370932488813744,0.036842181486656855,-0.02918132012581509
300bus.pwf,15,265,33,41,-0.24913561836711456,-0.10992437058096666,0.24963962301655657,0.0870524379942243,0.0005040046494420025,-0.02287193258674236
300bus.pwf,15,266,44,54,0.13069907054450808,-0.006961746658703798,-0.1302057848902078,-0.027526256019239033,0.0004932856543002906,-0.03448800267794283
300bus.pwf,15,267,49,51,-1.4010343949371782,0.8414132207766354,1.4827100650558607,-0.63688913211036,0.08167567011868249,0.20452408866627536
300bus.pwf,15,268,212,215,-0.4320604088039925,0.3611829918264129,0.4368384242147855,-0.420091637412336,0.004778015410793035,-0.058908645585923125
300bus.pwf,15,269,9012,9121,0.03839924564849406,0.014178830224019535,-0.037999998825759274,-0.012500000046694361,0.00039924682273478895,0.0016788301773251746
300bus.pwf,15,270,47,73,0.23314505894891396,-0.15154715938541494,-0.22932138050839584,0.09407104732270707,0.003823678440518119,-0.05747611206270786
300bus.pwf,15,271,140,145,0.13017595617119648,-0.19096542126459112,-0.12909101577585919,-0.34603923547004045,0.0010849403953372971,-0.5370046567346316
300bus.pwf,15,272,52,55,-0.871650158503416,0.016614366178096918,0.8935981097510264,0.013864025353325926,0.021947951247610398,0.030478391531422844
300bus.pwf,15,273,72,77,-0.4958547732649065,-0.05459369823390227,0.5006323663192884,0.06723725508159618,0.004777593054381912,0.012643556847693915
300bus.pwf,15,274,154,156,-0.2520921311442727,0.15720706572904386,0.26979923114346777,-0.1622118848327403,0.017707099999195064,-0.005004819103696434
300bus.pwf,15,275,137,186,-4.831142264119856,-1.0637484025004158,4.846733665885095,1.2598045634206516,0.015591401765239432,0.1960561609202358
300bus.pwf,15,276,127,134,-1.0692272977839015,-0.8738882388077013,1.0781411983545326,0.7290331755387062,0.008913900570631128,-0.1448550632689951
300bus.pwf,15,277,184,185,-1.9901440362039637,-0.5936558927755372,2.000000000194898,0.5117898211323181,0.009855963990934136,-0.08186607164321913
300bus.pwf,15,278,43,48,-0.06641122430158433,-0.009851581127619972,0.06685201300320234,-0.01971793736737981,0.0004407887016180112,-0.02956951849499978
300bus.pwf,15,279,244,246,0.5671427399790243,0.292583644360283,-0.559074846726852,-0.26978667419645325,0.008067893252172276,0.022796970163829755
300bus.pwf,15,280,130,132,1.3838737448777891,0.803982208365721,-1.3798358196740361,-0.7888078985758081,0.004037925203753012,0.015174309789912854
300bus.pwf,15,281,234,235,0.10525915562759502,1.0592067328352994,-0.1050171733432359,-1.1788022643403833,0.00024198228435912128,-0.11959553150508384
300bus.pwf,15,282,133,137,-7.020323270769728,-3.2444249853479272,7.121726574085381,3.6417781429173965,0.10140330331565295,0.3973531575694693
300bus.pwf,15,283,40,48,0.04006064969426433,0.06315029782446935,-0.0398747941692474,-0.08359746844906013,0.00018585552501693137,-0.020447170624590782
300bus.pwf,15,284,142,143,-1.3536203976568981,-0.6834606685664961,1.3647189419199612,-0.02599636648350101,0.011098544263063115,-0.7094570350499971
300bus.pwf,15,285,240,281,-0.3309432372475381,-0.30263013776740005,0.3309999999999956,0.29400000000003085,5.67627524574732e-5,-0.008630137767369206
300bus.pwf,15,286,59,61,-2.971453258671071,-0.33072950187918204,2.9901454132687957,0.4377251444882462,0.018692154597724553,0.10699564260906413
300bus.pwf,15,287,110,112,0.15695333273935352,-0.07091516417883867,-0.1529028264458152,0.035353868672023246,0.004050506293538314,-0.03556129550681542
300bus.pwf,15,288,145,149,-0.5316326044070729,-0.45873018298414275,0.5402730454783525,0.27713251336491335,0.008640441071279592,-0.1815976696192294
300bus.pwf,15,289,243,245,0.18760278599139024,0.18628221793573946,-0.1853690781558801,-0.1739214543306455,0.0022337078355101347,0.012360763605093972
300bus.pwf,15,290,99,110,0.49341133968650513,-0.027593572157590562,-0.48094457740869484,0.04986013735738698,0.012466762277810295,0.022266565199796418
300bus.pwf,15,291,141,146,-0.1613349470362271,-0.17006358263838928,0.16202999744525118,-0.20265486694148083,0.0006950504090240672,-0.3727184495798701
300bus.pwf,15,292,5,9,1.441847309263836,0.19775047047573419,-1.4294599204120626,-0.15612938189965514,0.012387388851773373,0.041621088576079046
300bus.pwf,15,293,189,209,-0.046363762195374275,-0.005543422462708097,0.04646471966469387,0.005694858666686602,0.00010095746931959582,0.00015143620397850555
300bus.pwf,15,294,9003,9006,-0.08019247041868204,-0.0201050626362646,0.0810545918285158,0.023930406528144207,0.0008621214098337715,0.0038253438918796068
300bus.pwf,15,295,221,223,3.2551470123661534,1.3581271990432557,-3.250932426738176,-2.3364843884635635,0.004214585627977385,-0.9783571894203078
300bus.pwf,15,296,191,225,6.5188966321704,2.9419491866117187,-6.471966281840172,-0.07919781646778062,0.04693035033022852,2.862751370143938
300bus.pwf,15,297,8,11,-0.406594133396235,0.23815361121737794,0.40950725247904035,-0.2584381749486336,0.0029131190828053377,-0.020284563731255645
300bus.pwf,15,298,228,229,-2.258830743337929,-1.0643678982555906,2.2680042636750968,-0.2924366832727321,0.009173520337167673,-1.3568045815283227
300bus.pwf,15,299,44,47,1.0970602961867155,-0.022656946140479806,-1.0637866478893705,0.0890427701133541,0.033273648297345026,0.06638582397287429
300bus.pwf,15,300,100,102,0.27680511354709647,0.05174948569036554,-0.27554072099589877,-0.05274557865359976,0.0012643925511977017,-0.0009960929632342186
300bus.pwf,15,301,97,103,0.0943087022514882,-0.12380783014648314,-0.09326490120616289,0.11088191657753191,0.00104380104532531,-0.01292591356895123
300bus.pwf,15,302,231,237,-4.519698224463157,-4.688533857117264,4.52221113390752,0.7474964203887705,0.0025129094443627764,-3.9410374367284935
300bus.pwf,15,303,198,211,0.44629467833157055,0.00019677454685501639,-0.4397120930290678,-0.011557615280428257,0.006582585302502775,-0.011360840733573241
300bus.pwf,15,304,247,248,0.41679495317907883,-0.18778498197582436,-0.4072652451329792,0.2148377746767873,0.00952970804609965,0.027052792700962947
300bus.pwf,15,305,148,178,0.7862467583372192,0.5291685193124729,-0.7421155677075402,-0.4744910884422695,0.04413119062967907,0.05467743087020338
300bus.pwf,15,306,109,110,-0.11418034392464216,0.0357170590844534,0.11530323229743644,-0.05255447105842899,0.001122888372794284,-0.01683741197397559
300bus.pwf,15,307,7071,71,1.1599999983522031,0.917599423641331,-1.1599999983522031,-0.7764951103883337,0.0,0.14110431325299722
300bus.pwf,15,308,7023,23,1.8499999999989507,0.1094867942640434,-1.8499999999989507,-0.037973904780294276,0.0,0.07151288948374912
300bus.pwf,15,309,223,224,-1.0290675734340156,0.016484388483482007,1.0303473257184133,0.366664382707258,0.001279752284397695,0.38314877119074
300bus.pwf,15,310,143,148,1.8330150108583734,0.9862471726304085,-1.8282871612076124,-0.8513216172125502,0.004727849650761007,0.13492555541785833
300bus.pwf,15,311,142,175,1.5301739377250776,0.8828990592948541,-1.5229366082614144,-0.6503212934671195,0.007237329463663178,0.2325777658277346
300bus.pwf,15,312,163,137,2.283750541894875,0.44416449612942266,-2.2774972725640845,-0.19719001679059822,0.006253269330790623,0.24697447933882444
300bus.pwf,15,313,45,46,-2.303377921538945,-0.4137129074050492,2.303377921538945,0.530143784880238,0.0,0.11643087747518877
300bus.pwf,15,314,145,180,2.933250006268789,1.5569212718131678,-2.927814658616506,-1.3590746172700545,0.005435347652283262,0.19784665454311323
300bus.pwf,15,315,9003,9032,0.01410632075231323,0.006109541278883003,-0.013899945396035061,-0.004799996908704064,0.0002063753562781684,0.0013095443701789389
300bus.pwf,15,316,7011,11,2.3399999999901384,0.6001092943903643,-2.3399999999901384,-0.491180555225462,0.0,0.10892873916490231
300bus.pwf,15,317,81,88,1.8782391746608604,0.9367036427020068,-1.8782391746608604,-0.8521359596113598,0.0,0.084567683090647
300bus.pwf,15,318,7130,130,12.919999995453615,3.67689765754654,-12.919999995453615,-0.5240783662864104,0.0,3.15281929126013
300bus.pwf,15,319,3,4,12.40043581579999,1.4766402524991236,-12.40043581579999,-0.7163674602182937,0.0,0.7602727922808299
300bus.pwf,15,320,7024,24,4.099999999953966,1.1607274913740397,-4.099999999953966,-0.6651425715174284,0.0,0.49558491985661135
300bus.pwf,15,321,7002,2,6.2299999999681015,1.1773300453998377,-6.193607668225322,-0.6460020019552775,0.03639233174277923,0.5313280434445602
300bus.pwf,15,322,7,5,0.9259530138016613,0.6034692826190309,-0.9259530138016613,-0.5590714721730627,0.0,0.04439781044596813
300bus.pwf,15,323,86,102,0.6579722151252869,-0.3861739637884547,-0.6579722151252869,0.41543306764425125,0.0,0.029259103855796553
300bus.pwf,15,324,201,69,-0.29073535045587606,-0.20388221923409944,0.29073535045587606,0.21791344519253286,0.0,0.014031225958433424
300bus.pwf,15,325,10,11,-0.09055963056216713,-0.332621260428418,0.09055963056216713,0.34376574936960225,0.0,0.01114448894118425
300bus.pwf,15,326,9004,9042,0.008195040720957211,0.003289453704364148,-0.008099969918766273,-0.0028000001720045464,9.507080219093786e-5,0.0004894535323596017
300bus.pwf,15,327,132,170,1.3733792649909722,0.6462736693069966,-1.3708213036390957,-0.5434436229615722,0.00255796135187647,0.10283004634542436
300bus.pwf,15,328,9005,9054,-0.49999991192533483,-0.31443019077909184,0.49999991192533483,0.37365175360331015,0.0,0.05922156282421831
300bus.pwf,15,329,7044,44,0.3699999735887033,0.540637471657103,-0.3699999735887033,-0.47342715756359244,0.0,0.06721031409351053
300bus.pwf,15,330,9003,9031,0.01875648819490266,0.008662616159171938,-0.018399918178639584,-0.00639999241168429,0.0003565700162630782,0.0022626237474876474
300bus.pwf,15,331,7057,57,1.649999995307422,1.0759350114476867,-1.649999995307422,-0.8963157636015602,0.0,0.17961924784612648
300bus.pwf,15,332,16,15,3.413334962724876,0.4048113810738115,-3.4018749425804353,0.030669384414961434,0.011460020144440808,0.4354807654887729
300bus.pwf,15,333,211,212,-1.318741721952943,-0.5486029249198356,1.324869426357953,0.5735222561668838,0.006127704405010093,0.02491933124704815
300bus.pwf,15,334,9005,9053,0.01226900266454636,-0.14254251420605818,-0.011899977632754851,0.1513065131820504,0.0003690250317915089,0.008763998975992227
300bus.pwf,15,335,9003,9037,0.018779129033241998,0.007597049237527364,-0.01859993450791078,-0.00639999815014981,0.0001791945253312166,0.0011970510873775542
300bus.pwf,15,336,130,131,2.874288373567234,-0.786929878791284,-2.874288373567234,0.9597755256377525,0.0,0.17284564684646853
300bus.pwf,15,337,116,124,2.9914770511229443,-0.3856251969449138,-2.9412498607184294,0.5536931032984915,0.05022719040451484,0.1680679063535777
300bus.pwf,15,338,9003,9034,0.015549332744992629,-0.00963721269430172,-0.0154999534605169,0.010165403226076716,4.937928447572987e-5,0.0005281905317749969
300bus.pwf,15,339,209,198,-0.4264647060474618,-0.1356948645662649,0.4319976388815959,0.1805967425663556,0.005532932834134141,0.04490187800009071
300bus.pwf,15,340,7012,12,3.7199999991814483,2.2806146405964896,-3.7199999991814483,-1.7428316603676315,0.0,0.5377829802288581
300bus.pwf,15,341,121,115,1.8321523238108153,0.859852235670747,-1.8321523238108153,-0.7311238749466504,0.0,0.12872836072409655
300bus.pwf,15,342,7,6,0.1504239173295933,-0.07645612408848379,-0.1504239173295933,0.07751512764580681,0.0,0.0010590035573230239
300bus.pwf,15,343,73,74,-2.6325080888229886,-0.4386067485044407,2.6325080888229886,0.6236424868250907,0.0,0.18503573832065
300bus.pwf,15,344,241,237,5.747999999850261,-0.2066466931272676,-5.732996731435723,0.6687473602950423,0.015003268414538695,0.46210066716777476
300bus.pwf,15,345,164,155,2.2523373191639795,0.5109412271704461,-2.2477926711646194,-0.3602598850301082,0.004544647999360052,0.1506813421403379
300bus.pwf,15,346,45,44,3.1526794862610124,-0.00878794772974345,-3.1526794862610124,0.21326442199713114,0.0,0.2044764742673877
300bus.pwf,15,347,238,239,-5.484641176224775,-0.19236524681571637,5.500000000000001,0.6838476076229489,0.015358823775225794,0.49148236080723257
300bus.pwf,15,348,9003,9038,0.026211974616721024,0.011670987886654952,-0.025799893066027157,-0.008899991638697993,0.00041208155069386715,0.0027709962479569583
300bus.pwf,15,349,9021,9022,0.015424932800424679,0.006092784284003994,-0.015300000000000006,-0.0053000000000000165,0.0001249328004246722,0.0007927842840039778
300bus.pwf,15,350,218,219,-0.8119405561654847,-0.42516453873258014,0.8127214629147272,0.46389257103779186,0.0007809067492425825,0.03872803230521171
300bus.pwf,15,351,229,230,-3.4388160358227378,-0.06923256972347862,3.4499999999965825,0.4405401802951268,0.011183964173844707,0.3713076105716482
300bus.pwf,15,352,9007,9072,0.010240825427034951,0.0037729107360361894,-0.010199972432111418,-0.003500000205516213,4.085299492353339e-5,0.0002729105305199764
300bus.pwf,15,353,36,35,1.1343475947405621,0.22215654490451442,-1.1343475947405621,-0.15712930995460894,0.0,0.06502723494990548
300bus.pwf,15,354,234,236,-5.978149520135719,-2.319158023925799,5.999999999985482,3.0183733791182137,0.021850479849763182,0.6992153551924147
300bus.pwf,15,355,7001,1,4.669999999436699,1.6746987153945199,-4.669999999436699,-1.239517176337344,0.0,0.4351815390571758
300bus.pwf,15,356,7003,3,12.099999986788053,5.2210026296127126,-12.099999986788053,-3.492254054348024,0.0,1.7287485752646887
300bus.pwf,15,357,130,150,3.30623995691243,-1.0250267134030082,-3.30623995691243,1.2064061474746524,0.0,0.18137943407164414
300bus.pwf,15,358,151,170,1.3998808259924775,0.6932307056634843,-1.3971786953382082,-0.5873071840161184,0.0027021306542693857,0.10592352164736596
300bus.pwf,15,359,9007,9071,0.010259163672165282,0.003898031403383775,-0.01019997144172118,-0.0034999998773602515,5.919223044410088e-5,0.00039803152602352343
300bus.pwf,15,360,153,183,0.8689533745126197,0.006358728749300678,-0.8667997082036705,0.04461137389583567,0.002153666308949198,0.05097010264513635
300bus.pwf,15,361,213,214,2.719999999989075,0.44875309709885325,-2.7013749158255216,-0.16565181781283822,0.018625084163553574,0.28310127928601503
300bus.pwf,15,362,9003,9035,0.016805724171738014,0.0071057791401038265,-0.0165999385538151,-0.005799997556000083,0.00020578561792291422,0.0013057815841037435
300bus.pwf,15,363,200,248,-0.05225231367506,-0.09160708241085125,0.05225231367506,0.09429202830598182,0.0,0.002684945895130575
300bus.pwf,15,364,7049,49,-4.3117329459357085,3.251101531089418,4.3117329459357085,-2.9237501102458054,0.0,0.3273514208436126
300bus.pwf,15,365,143,144,2.8892761811395875,0.3954845142393548,-2.8892761811395875,0.3007644223438355,0.0,0.6962489365831903
300bus.pwf,15,366,9005,9052,0.3024984127448126,0.2893589684020366,-0.29999964940486495,-0.22999987932644958,0.0024987633399476405,0.05935908907558704
300bus.pwf,15,367,159,117,-8.947777275000027,2.0025778663356206,8.947777275000027,-0.45230767081860535,0.0,1.5502701955170153
300bus.pwf,15,368,182,139,-0.7747277269222983,-1.302723946226158,0.775425424128465,1.3331900575621123,0.0006976972061667475,0.030466111335954338
300bus.pwf,15,369,189,210,-0.10387884396609824,-0.03928268583665462,0.10387884396609824,0.042601903598388,0.0,0.003319217761733384
300bus.pwf,15,370,122,157,-1.2951551138797346,0.9018070486549608,1.2965910749339524,-0.8458045675404566,0.001435961054217838,0.05600248111450412
300bus.pwf,15,371,3,1,0.2926795625100871,0.2982955896850825,-0.2926795625100871,-0.2898734387252766,0.0,0.008422150959805919
300bus.pwf,15,372,7017,17,3.2999999922519887,4.214498587885487,-3.2999999922519887,-3.832342087629911,0.0,0.3821565002555758
300bus.pwf,15,373,9004,9043,0.01605241902378863,0.005769089579176232,-0.01599994365327328,-0.005199998037033324,5.247537051535078e-5,0.0005690915421429077
300bus.pwf,15,374,63,64,-2.038003564792026,0.07768366181963415,2.038003564792026,0.10044545369232694,0.0,0.1781291155119611
300bus.pwf,15,375,141,174,0.9924576957172258,0.27545725902308577,-0.9902665634021574,-0.22040505960699336,0.0021911323150684003,0.05505219941609241
300bus.pwf,15,376,7061,61,3.999999998498167,1.3048281296579205,-3.999999998498167,-0.8958676412450401,0.0,0.40896048841288035
300bus.pwf,15,377,7139,139,6.99999999999644,2.8823658651706623,-6.99999999999644,-2.015949710580074,0.0,0.8664161545905884
300bus.pwf,15,378,160,124,-0.9529396067854465,-0.04205259686158431,0.9541261265381553,0.08120774870097608,0.0011865197527087812,0.03915515183939177
300bus.pwf,15,379,9001,9006,0.2553089247853254,0.10908157560427185,-0.2534554344537906,-0.07588593613641444,0.0018534903315348128,0.03319563946785742
300bus.pwf,15,380,9053,9533,0.011899999999999994,0.004209740520644711,-0.011899999999999994,-0.0040999999999997705,0.0,0.00010974052064494089
300bus.pwf,15,381,155,156,1.020745640123533,0.25450079707177964,-1.019799231133808,-0.22421570940057675,0.0009464089897250894,0.030285087671202887
300bus.pwf,15,382,202,211,-0.26951440080709926,-0.1507110716051363,0.26951440080709926,0.16344384423933356,0.0,0.012732772634197254
300bus.pwf,15,383,9003,9033,0.01928864857823987,0.008966726275973691,-0.018899912969228817,-0.00649999115388058,0.00038873560901105456,0.002466735122093111
300bus.pwf,15,384,7055,55,0.4499999572609097,0.3787026430846927,-0.4499999572609097,-0.3181556119204014,0.0,0.060547031164291276
300bus.pwf,15,385,9005,9055,-0.07999998593973434,-0.06085443652140099,0.07999998593973434,0.06988113291125542,0.0,0.009026696389854427
300bus.pwf,15,386,15,17,2.450211580081538,-1.4075691645593273,-2.3099995952255234,1.6323419856429424,0.14021198485601438,0.22477282108361507
300bus.pwf,15,387,9002,9024,0.013610111547397226,0.005398709712557268,-0.013499999999999998,-0.004700000000000069,0.00011011154739722778,0.0006987097125571995
300bus.pwf,15,388,9004,9041,0.01014956564131218,0.003832710702411297,-0.01009996521181505,-0.0035000001139889724,4.960042949712917e-5,0.0003327105884223247
300bus.pwf,15,389,9023,9025,0.004516338093851623,0.0016966252431483315,-0.004499999999999997,-0.00159999999999998,1.6338093851625546e-5,9.662524314835164e-5
300bus.pwf,15,390,193,196,-0.04949637966772967,-0.03514817317309493,0.04949637966772967,0.0360967693259604,0.0,0.0009485961528654663
300bus.pwf,15,391,7166,166,5.52999999998515,1.3926731895193711,-5.52999999998515,-0.906551464037392,0.0,0.4861217254819792
300bus.pwf,15,392,7062,62,3.9999999924334295,1.9034875154237696,-3.9999999924334295,-1.3365582174379043,0.0,0.5669292979858653
300bus.pwf,15,393,7039,39,4.999999719055774,2.646143556878677,-4.999999719055774,-1.7922499444155662,0.0,0.8538936124631107
300bus.pwf,15,394,196,2040,0.8323238414673391,0.21056036273204404,-0.8322452282999855,-0.19483772926169518,7.861316735358059e-5,0.015722633470348857
300bus.pwf,15,395,227,231,-2.3499999999235532,-0.9281024720129206,2.355745486701931,1.4351504089615124,0.0057454867783777175,0.5070479369485917
300bus.pwf,15,396,195,212,0.8941189319381916,0.9946341718650517,-0.8928090098265467,-0.9347052352572939,0.0013099221116449344,0.05992893660775778
300bus.pwf,15,397,9001,9012,0.12525835579637398,0.010940661463183034,-0.1246883055268946,-0.0007322943581406756,0.0005700502694793858,0.01020836710504236
300bus.pwf,15,398,222,237,-0.77999999993867,-0.03982251819691805,0.7807745851232538,0.4346402480926066,0.0007745851845838425,0.39481772989568853
300bus.pwf,15,399,85,99,1.2279363631186409,-0.1676842687079123,-1.2279363631186409,0.2446611549865807,0.0,0.07697688627866839
300bus.pwf,15,400,9023,9026,0.004514950480140295,0.001688416449866172,-0.0045,-0.001599999999999992,1.4950480140295264e-5,8.841644986617991e-5
300bus.pwf,15,401,9003,9036,0.030487928370187434,0.012039188200988588,-0.030299891843092196,-0.009999992646874617,0.00018803652709523805,0.0020391955541139706
300bus.pwf,15,402,3,2,-0.009308734019407693,-0.07191121285287494,0.009308734019407693,0.07216961816995848,0.0,0.0002584053170835432
300bus.pwf,15,403,204,2040,-0.8166150780213508,-0.02424112833909882,0.8322469311664032,0.1948382669008954,0.015631853145052443,0.1705971385617966
300bus.pwf,15,404,37,9001,0.11604706164347009,-0.2767148074180583,-0.11604150667248733,0.2767573955288314,5.554970982757368e-6,4.2588110773067456e-5
300bus.pwf,15,405,114,207,-0.12086168588359725,-0.0481979009689395,0.12086168588359725,0.05069312194882425,0.0,0.002495220979884749
300bus.pwf,15,406,12,10,1.389440368921378,-0.2238835946853115,-1.389440368921378,0.327910719025823,0.0,0.10402712434051153
300bus.pwf,15,407,9005,9051,0.0005196343834295127,-0.1691250586028343,2.0559524321721312e-8,0.18146966265325745,0.0005196549429538344,0.012344604050423147
300bus.pwf,15,408,24,23,0.6376770738998322,0.24891600916677703,-0.6376770738998322,-0.22240856419195865,0.0,0.026507444974818384
300bus.pwf,15,409,87,94,0.971129262044271,-0.49867743354742444,-0.971129262044271,0.5588661605292593,0.0,0.06018872698183486
300bus.pwf,15,410,21,20,5.164896845161675,1.5039715381014815,-5.164896845161675,-1.112398525052626,0.0,0.3915730130488555
300bus.pwf,15,411,62,61,1.2601454151887508,0.7625274333211216,-1.2601454151887508,-0.6418575024542648,0.0,0.12066993086685684
